Cenario_1/Tabelas_01/SE_Curr_Elem-Sem_RED.Txt

CIRCUIT ELEMENT CURRENTS

(Currents into element from indicated bus)

Power Delivery Elements

  Bus  Phase    Magnitude, A     Angle      (Real)   +j  (Imag)

ELEMENT = "Vsource.SOURCE"
99         1           147.02 /_  153.1 =    -131.13 +j    66.481
99         2           147.02 /_   33.1 =     123.14 +j     80.32
99         3           147.02 /_  -86.9 =       7.99 +j    -146.8
------------
99         0           147.02 /_  -26.9 =     131.13 +j   -66.481
99         0           147.02 /_ -146.9 =    -123.14 +j    -80.32
99         0           147.02 /_   93.1 =      -7.99 +j     146.8

ELEMENT = "Line.TRECHO_99-1"
99         1           147.02 /_  -26.9 =     131.13 +j   -66.481
99         2           147.02 /_ -146.9 =    -123.14 +j    -80.32
99         3           147.02 /_   93.1 =      -7.99 +j     146.8
------------
1          1           147.02 /_  153.1 =    -131.13 +j    66.481
1          2           147.02 /_   33.1 =     123.14 +j     80.32
1          3           147.02 /_  -86.9 =       7.99 +j    -146.8

ELEMENT = "Line.TRECHO_1-2"
1          1           94.902 /_  -26.9 =      84.64 +j   -42.925
1          2           94.902 /_ -146.9 =    -79.494 +j   -51.838
1          3           94.902 /_   93.1 =    -5.1462 +j    94.763
------------
2          1           94.902 /_  153.1 =     -84.64 +j    42.925
2          2           94.902 /_   33.1 =     79.494 +j    51.838
2          3           94.902 /_  -86.9 =     5.1462 +j   -94.763

ELEMENT = "Line.TRECHO_2-6"
2          1            33.38 /_  -26.9 =     29.771 +j   -15.097
2          2            33.38 /_ -146.9 =     -27.96 +j   -18.234
2          3            33.38 /_   93.1 =    -1.8114 +j    33.331
------------
6          1            33.38 /_  153.1 =    -29.771 +j    15.097
6          2            33.38 /_   33.1 =      27.96 +j    18.234
6          3            33.38 /_  -86.9 =     1.8114 +j   -33.331

ELEMENT = "Line.TRECHO_6-7"
6          1           20.864 /_  -26.9 =     18.608 +j   -9.4357
6          2           20.864 /_ -146.9 =    -17.476 +j   -11.397
6          3           20.864 /_   93.1 =    -1.1324 +j    20.833
------------
7          1           20.864 /_  153.1 =    -18.608 +j    9.4357
7          2           20.864 /_   33.1 =     17.476 +j    11.397
7          3           20.864 /_  -86.9 =     1.1324 +j   -20.833

ELEMENT = "Line.TRECHO_1-5"
1          1           31.274 /_  -26.9 =     27.897 +j   -14.136
1          2           31.274 /_ -146.9 =     -26.19 +j   -17.092
1          3           31.274 /_   93.1 =    -1.7067 +j    31.227
------------
5          1           31.274 /_  153.1 =    -27.897 +j    14.136
5          2           31.274 /_   33.1 =      26.19 +j    17.092
5          3           31.274 /_  -86.9 =     1.7067 +j   -31.227

ELEMENT = "Line.TRECHO_2-3"
2          1           52.139 /_  -26.9 =       46.5 +j   -23.584
2          2           52.139 /_ -146.9 =    -43.674 +j   -28.478
2          3           52.139 /_   93.1 =    -2.8258 +j    52.062
------------
3          1           52.139 /_  153.1 =      -46.5 +j    23.584
3          2           52.139 /_   33.1 =     43.674 +j    28.478
3          3           52.139 /_  -86.9 =     2.8258 +j   -52.062

ELEMENT = "Line.TRECHO_3-4"
3          1           20.856 /_  -26.9 =     18.601 +j   -9.4341
3          2           20.856 /_ -146.9 =     -17.47 +j   -11.392
3          3           20.856 /_   93.1 =    -1.1302 +j    20.826
------------
4          1           20.856 /_  153.1 =    -18.601 +j    9.4341
4          2           20.856 /_   33.1 =      17.47 +j    11.392
4          3           20.856 /_  -86.9 =     1.1302 +j   -20.826

ELEMENT = "Transformer.TR1"
1          1           20.842 /_  -26.9 =     18.591 +j   -9.4208
1          2           20.842 /_ -146.9 =    -17.454 +j    -11.39
1          3           20.842 /_   93.1 =    -1.1371 +j    20.811
1          0                0 /_    0.0 =          0 +j         0
------------
BT-TR1     1            756.9 /_  123.1 =    -413.65 +j    633.87
BT-TR1     2            756.9 /_    3.1 =     755.77 +j    41.296
BT-TR1     3            756.9 /_ -116.9 =    -342.12 +j   -675.16
BT-TR1     0      1.5552E-007 /_  -60.7 =  7.6217E-008 +j -1.3556E-007

ELEMENT = "Transformer.TR2"
2          1           9.3839 /_  -26.9 =     8.3692 +j   -4.2443
2          2           9.3839 /_ -146.9 =    -7.8602 +j   -5.1258
2          3           9.3839 /_   93.1 =   -0.50896 +j    9.3701
2          0                0 /_    0.0 =          0 +j         0
------------
BT-TR2     1           340.78 /_  123.1 =    -186.15 +j    285.45
BT-TR2     2           340.78 /_    3.1 =     340.28 +j    18.484
BT-TR2     3           340.78 /_ -116.9 =    -154.13 +j   -303.93
BT-TR2     0      7.0059E-008 /_  -60.7 =  3.4298E-008 +j -6.109E-008

ELEMENT = "Transformer.TR3"
3          1           31.282 /_  -26.9 =     27.899 +j    -14.15
3          2           31.282 /_ -146.9 =    -26.204 +j   -17.087
3          3           31.282 /_   93.1 =    -1.6956 +j    31.236
3          0                0 /_    0.0 =          0 +j         0
------------
BT-TR3     1             1136 /_  123.1 =    -620.52 +j    951.61
BT-TR3     2             1136 /_    3.1 =     1134.4 +j     61.58
BT-TR3     3             1136 /_ -116.9 =    -513.86 +j   -1013.2
BT-TR3     0      2.3356E-007 /_  -60.7 =  1.1433E-007 +j -2.0367E-007

ELEMENT = "Transformer.TR4"
4          1           20.856 /_  -26.9 =     18.601 +j   -9.4341
4          2           20.856 /_ -146.9 =     -17.47 +j   -11.392
4          3           20.856 /_   93.1 =    -1.1302 +j    20.826
4          0                0 /_    0.0 =          0 +j         0
------------
BT-TR4     1           757.41 /_  123.1 =    -413.69 +j    634.45
BT-TR4     2           757.41 /_    3.1 =      756.3 +j    41.043
BT-TR4     3           757.41 /_ -116.9 =     -342.6 +j   -675.49
BT-TR4     0      1.5573E-007 /_  -60.7 =  7.6227E-008 +j -1.358E-007

ELEMENT = "Transformer.TR5"
5          1           31.274 /_  -26.9 =     27.897 +j   -14.136
5          2           31.274 /_ -146.9 =     -26.19 +j   -17.092
5          3           31.274 /_   93.1 =    -1.7067 +j    31.227
5          0                0 /_    0.0 =          0 +j         0
------------
BT-TR5     1           1135.7 /_  123.1 =    -620.69 +j    951.11
BT-TR5     2           1135.7 /_    3.1 =       1134 +j     61.98
BT-TR5     3           1135.7 /_ -116.9 =    -513.34 +j   -1013.1
BT-TR5     0      2.3344E-007 /_  -60.7 =  1.1441E-007 +j -2.0348E-007

ELEMENT = "Transformer.TR6"
6          1           12.516 /_  -26.9 =     11.163 +j   -5.6609
6          2           12.516 /_ -146.9 =    -10.484 +j    -6.837
6          3           12.516 /_   93.1 =   -0.67904 +j    12.498
6          0                0 /_    0.0 =          0 +j         0
------------
BT-TR6     1           454.54 /_  123.1 =    -248.29 +j    380.73
BT-TR6     2           454.54 /_    3.1 =     453.87 +j     24.66
BT-TR6     3           454.54 /_ -116.9 =    -205.58 +j   -405.39
BT-TR6     0      9.3479E-008 /_  -60.7 =  4.5768E-008 +j -8.1509E-008

ELEMENT = "Transformer.TR7"
7          1           20.864 /_  -26.9 =     18.608 +j   -9.4357
7          2           20.864 /_ -146.9 =    -17.476 +j   -11.397
7          3           20.864 /_   93.1 =    -1.1324 +j    20.833
7          0                0 /_    0.0 =          0 +j         0
------------
BT-TR7     1           757.68 /_  123.1 =    -413.89 +j    634.64
BT-TR7     2           757.68 /_    3.1 =     756.56 +j    41.125
BT-TR7     3           757.68 /_ -116.9 =    -342.66 +j   -675.76
BT-TR7     0      1.5585E-007 /_  -60.7 =  7.6307E-008 +j -1.3589E-007

= = = = = = = = = = = = = = = = = = =  = = = = = = = = = = =  = =

Power Conversion Elements

  Bus  Phase    Magnitude, A     Angle      (Real)   +j  (Imag)

ELEMENT = "Load.LOAD_TR1"
BT-TR1     1            756.9 /_  -56.9 =     413.65 +j   -633.87
BT-TR1     2            756.9 /_ -176.9 =    -755.77 +j   -41.296
BT-TR1     3            756.9 /_   63.1 =     342.12 +j    675.16
BT-TR1     0      1.5552E-007 /_  119.3 =  -7.622E-008 +j 1.3556E-007

ELEMENT = "Load.LOAD_TR2"
BT-TR2     1           340.78 /_  -56.9 =     186.15 +j   -285.45
BT-TR2     2           340.78 /_ -176.9 =    -340.28 +j   -18.484
BT-TR2     3           340.78 /_   63.1 =     154.13 +j    303.93
BT-TR2     0      7.0058E-008 /_  119.3 =  -3.4297E-008 +j 6.1089E-008

ELEMENT = "Load.LOAD_TR3"
BT-TR3     1             1136 /_  -56.9 =     620.52 +j   -951.61
BT-TR3     2             1136 /_ -176.9 =    -1134.4 +j    -61.58
BT-TR3     3             1136 /_   63.1 =     513.86 +j    1013.2
BT-TR3     0      2.3357E-007 /_  119.3 =  -1.1433E-007 +j 2.0367E-007

ELEMENT = "Load.LOAD_TR4"
BT-TR4     1           757.41 /_  -56.9 =     413.69 +j   -634.45
BT-TR4     2           757.41 /_ -176.9 =     -756.3 +j   -41.043
BT-TR4     3           757.41 /_   63.1 =      342.6 +j    675.49
BT-TR4     0      1.5573E-007 /_  119.3 =  -7.6226E-008 +j 1.358E-007

ELEMENT = "Load.LOAD_TR5"
BT-TR5     1           1135.7 /_  -56.9 =     620.69 +j   -951.11
BT-TR5     2           1135.7 /_ -176.9 =      -1134 +j   -61.981
BT-TR5     3           1135.7 /_   63.1 =     513.34 +j    1013.1
BT-TR5     0      2.3344E-007 /_  119.3 =  -1.1442E-007 +j 2.0347E-007

ELEMENT = "Load.LOAD_TR6"
BT-TR6     1           454.54 /_  -56.9 =     248.29 +j   -380.73
BT-TR6     2           454.54 /_ -176.9 =    -453.87 +j    -24.66
BT-TR6     3           454.54 /_   63.1 =     205.58 +j    405.39
BT-TR6     0      9.3479E-008 /_  119.3 =  -4.5767E-008 +j 8.151E-008

ELEMENT = "Load.LOAD_TR7"
BT-TR7     1           757.68 /_  -56.9 =     413.89 +j   -634.64
BT-TR7     2           757.68 /_ -176.9 =    -756.56 +j   -41.125
BT-TR7     3           757.68 /_   63.1 =     342.66 +j    675.76
BT-TR7     0      1.5584E-007 /_  119.3 =  -7.6307E-008 +j 1.3588E-007

