Cenario_1/Tabelas_01/SE_Power_elem_kVA-Com_SFV.txt

CIRCUIT ELEMENT POWER FLOW

(Power Flow into element from indicated Bus)

Power Delivery Elements

  Bus     Phase     kW     +j   kvar         kVA         PF

ELEMENT = "Vsource.SOURCE"
99            1        -9.5 +j   -480.7      480.8       0.0197
99            2        -9.5 +j   -480.7      480.8       0.0197
99            3        -9.5 +j   -480.7      480.8       0.0197
   TERMINAL TOTAL .   -28.5 +j  -1442.2     1442.4       0.0197
99            0         0.0 +j      0.0        0.0       1.0000
99            0         0.0 +j      0.0        0.0       1.0000
99            0         0.0 +j      0.0        0.0       1.0000
   TERMINAL TOTAL .     0.0 +j      0.0        0.0       1.0000

ELEMENT = "Line.TRECHO_99-1"
99            1         9.5 +j    480.7      480.8       0.0197
99            2         9.5 +j    480.7      480.8       0.0197
99            3         9.5 +j    480.7      480.8       0.0197
   TERMINAL TOTAL .    28.5 +j   1442.2     1442.4       0.0197
1             1        -9.4 +j   -480.6      480.7       0.0196
1             2        -9.4 +j   -480.6      480.7       0.0196
1             3        -9.4 +j   -480.6      480.7       0.0196
   TERMINAL TOTAL .   -28.3 +j  -1441.9     1442.2       0.0196

ELEMENT = "Line.TRECHO_1-2"
1             1      -317.8 +j    325.7      455.0      -0.6983
1             2      -317.8 +j    325.7      455.0      -0.6983
1             3      -317.8 +j    325.7      455.0      -0.6983
   TERMINAL TOTAL .  -953.3 +j    977.1     1365.1      -0.6983
2             1       317.8 +j   -325.6      455.0      -0.6986
2             2       317.8 +j   -325.6      455.0      -0.6986
2             3       317.8 +j   -325.6      455.0      -0.6986
   TERMINAL TOTAL .   953.5 +j   -976.7     1365.0      -0.6986

ELEMENT = "Line.TRECHO_2-6"
2             1       137.4 +j     65.1      152.1       0.9038
2             2       137.4 +j     65.1      152.1       0.9038
2             3       137.4 +j     65.1      152.1       0.9038
   TERMINAL TOTAL .   412.3 +j    195.2      456.2       0.9038
6             1      -137.4 +j    -65.1      152.0       0.9038
6             2      -137.4 +j    -65.1      152.0       0.9038
6             3      -137.4 +j    -65.1      152.0       0.9038
   TERMINAL TOTAL .  -412.2 +j   -195.2      456.1       0.9038

ELEMENT = "Line.TRECHO_6-7"
6             1        58.9 +j     27.9       65.2       0.9038
6             2        58.9 +j     27.9       65.2       0.9038
6             3        58.9 +j     27.9       65.2       0.9038
   TERMINAL TOTAL .   176.7 +j     83.7      195.5       0.9038
7             1       -58.9 +j    -27.9       65.2       0.9038
7             2       -58.9 +j    -27.9       65.2       0.9038
7             3       -58.9 +j    -27.9       65.2       0.9038
   TERMINAL TOTAL .  -176.7 +j    -83.7      195.5       0.9038

ELEMENT = "Line.TRECHO_1-5"
1             1       196.3 +j     93.0      217.2       0.9038
1             2       196.3 +j     93.0      217.2       0.9038
1             3       196.3 +j     93.0      217.2       0.9038
   TERMINAL TOTAL .   589.0 +j    278.9      651.7       0.9038
5             1      -196.3 +j    -93.0      217.2       0.9038
5             2      -196.3 +j    -93.0      217.2       0.9038
5             3      -196.3 +j    -93.0      217.2       0.9038
   TERMINAL TOTAL .  -588.8 +j   -278.9      651.5       0.9038

ELEMENT = "Line.TRECHO_2-3"
2             1      -586.1 +j    198.5      618.8      -0.9471
2             2      -586.1 +j    198.5      618.8      -0.9471
2             3      -586.1 +j    198.5      618.8      -0.9471
   TERMINAL TOTAL . -1758.4 +j    595.6     1856.5      -0.9471
3             1       586.2 +j   -198.5      618.9      -0.9472
3             2       586.2 +j   -198.5      618.9      -0.9472
3             3       586.2 +j   -198.5      618.9      -0.9472
   TERMINAL TOTAL .  1758.6 +j   -595.4     1856.6      -0.9472

ELEMENT = "Line.TRECHO_3-4"
3             1      -782.5 +j    105.5      789.5      -0.9910
3             2      -782.5 +j    105.5      789.5      -0.9910
3             3      -782.5 +j    105.5      789.5      -0.9910
   TERMINAL TOTAL . -2347.4 +j    316.6     2368.6      -0.9910
4             1       782.6 +j   -105.4      789.7      -0.9911
4             2       782.6 +j   -105.4      789.7      -0.9911
4             3       782.6 +j   -105.4      789.7      -0.9911
   TERMINAL TOTAL .  2347.9 +j   -316.2     2369.1      -0.9911

ELEMENT = "Transformer.TR1"
1             1       130.9 +j     62.0      144.8       0.9038
1             2       130.9 +j     62.0      144.8       0.9038
1             3       130.9 +j     62.0      144.8       0.9038
1             0         0.0 +j      0.0        0.0       1.0000
   TERMINAL TOTAL .   392.6 +j    185.9      434.3       0.9038
BT-TR1        1      -130.3 +j    -55.5      141.7       0.9200
BT-TR1        2      -130.3 +j    -55.5      141.7       0.9200
BT-TR1        3      -130.3 +j    -55.5      141.7       0.9200
BT-TR1        0         0.0 +j      0.0        0.0       1.0000
   TERMINAL TOTAL .  -391.0 +j   -166.6      425.0       0.9200

ELEMENT = "Transformer.TR2"
2             1       130.9 +j     62.0      144.8       0.9038
2             2       130.9 +j     62.0      144.8       0.9038
2             3       130.9 +j     62.0      144.8       0.9038
2             0         0.0 +j      0.0        0.0       1.0000
   TERMINAL TOTAL .   392.6 +j    185.9      434.3       0.9038
BT-TR2        1      -130.3 +j    -55.5      141.7       0.9200
BT-TR2        2      -130.3 +j    -55.5      141.7       0.9200
BT-TR2        3      -130.3 +j    -55.5      141.7       0.9200
BT-TR2        0         0.0 +j      0.0        0.0       1.0000
   TERMINAL TOTAL .  -391.0 +j   -166.6      425.0       0.9200

ELEMENT = "Transformer.TR3"
3             1       196.3 +j     92.9      217.2       0.9038
3             2       196.3 +j     92.9      217.2       0.9038
3             3       196.3 +j     92.9      217.2       0.9038
3             0         0.0 +j      0.0        0.0       1.0000
   TERMINAL TOTAL .   588.8 +j    278.8      651.5       0.9038
BT-TR3        1      -195.5 +j    -83.3      212.5       0.9200
BT-TR3        2      -195.5 +j    -83.3      212.5       0.9200
BT-TR3        3      -195.5 +j    -83.3      212.5       0.9200
BT-TR3        0         0.0 +j      0.0        0.0       1.0000
   TERMINAL TOTAL .  -586.5 +j   -249.9      637.5       0.9200

ELEMENT = "Transformer.TR4"
4             1       130.9 +j     62.0      144.8       0.9038
4             2       130.9 +j     62.0      144.8       0.9038
4             3       130.9 +j     62.0      144.8       0.9038
4             0         0.0 +j      0.0        0.0       1.0000
   TERMINAL TOTAL .   392.6 +j    185.9      434.3       0.9038
BT-TR4        1      -130.3 +j    -55.5      141.7       0.9200
BT-TR4        2      -130.3 +j    -55.5      141.7       0.9200
BT-TR4        3      -130.3 +j    -55.5      141.7       0.9200
BT-TR4        0         0.0 +j      0.0        0.0       1.0000
   TERMINAL TOTAL .  -391.0 +j   -166.6      425.0       0.9200

ELEMENT = "Transformer.TR5"
5             1       196.3 +j     93.0      217.2       0.9038
5             2       196.3 +j     93.0      217.2       0.9038
5             3       196.3 +j     93.0      217.2       0.9038
5             0         0.0 +j      0.0        0.0       1.0000
   TERMINAL TOTAL .   588.8 +j    278.9      651.5       0.9038
BT-TR5        1      -195.5 +j    -83.3      212.5       0.9200
BT-TR5        2      -195.5 +j    -83.3      212.5       0.9200
BT-TR5        3      -195.5 +j    -83.3      212.5       0.9200
BT-TR5        0         0.0 +j      0.0        0.0       1.0000
   TERMINAL TOTAL .  -586.5 +j   -249.9      637.5       0.9200

ELEMENT = "Transformer.TR6"
6             1        78.5 +j     37.2       86.9       0.9038
6             2        78.5 +j     37.2       86.9       0.9038
6             3        78.5 +j     37.2       86.9       0.9038
6             0         0.0 +j      0.0        0.0       1.0000
   TERMINAL TOTAL .   235.5 +j    111.5      260.6       0.9038
BT-TR6        1       -78.2 +j    -33.3       85.0       0.9200
BT-TR6        2       -78.2 +j    -33.3       85.0       0.9200
BT-TR6        3       -78.2 +j    -33.3       85.0       0.9200
BT-TR6        0         0.0 +j      0.0        0.0       1.0000
   TERMINAL TOTAL .  -234.6 +j    -99.9      255.0       0.9200

ELEMENT = "Transformer.TR7"
7             1        58.9 +j     27.9       65.2       0.9038
7             2        58.9 +j     27.9       65.2       0.9038
7             3        58.9 +j     27.9       65.2       0.9038
7             0         0.0 +j      0.0        0.0       1.0000
   TERMINAL TOTAL .   176.7 +j     83.7      195.5       0.9038
BT-TR7        1       -58.7 +j    -25.0       63.8       0.9200
BT-TR7        2       -58.7 +j    -25.0       63.8       0.9200
BT-TR7        3       -58.7 +j    -25.0       63.8       0.9200
BT-TR7        0         0.0 +j      0.0        0.0       1.0000
   TERMINAL TOTAL .  -176.0 +j    -75.0      191.3       0.9200

ELEMENT = "Transformer.TR_AC1"
TR_ACOPL1     1       916.5 +j      0.0      916.5       1.0000
TR_ACOPL1     2       916.5 +j      0.0      916.5       1.0000
TR_ACOPL1     3       916.5 +j      0.0      916.5       1.0000
TR_ACOPL1     0         0.0 +j      0.0        0.0       1.0000
   TERMINAL TOTAL .  2749.6 +j      0.1     2749.6       1.0000
4             1      -913.5 +j     43.4      914.5      -0.9989
4             2      -913.5 +j     43.4      914.5      -0.9989
4             3      -913.5 +j     43.4      914.5      -0.9989
4             0         0.0 +j      0.0        0.0       1.0000
   TERMINAL TOTAL . -2740.5 +j    130.3     2743.6      -0.9989

= = = = = = = = = = = = = = = = = = =  = = = = = = = = = = =  = =

Power Conversion Elements

  Bus     Phase     kW   +j  kvar         kVA         PF

ELEMENT = "Load.LOAD_TR1"
BT-TR1        1     130.3 +j   55.5      141.7       0.9200
BT-TR1        2     130.3 +j   55.5      141.7       0.9200
BT-TR1        3     130.3 +j   55.5      141.7       0.9200
BT-TR1        0       0.0 +j    0.0        0.0       1.0000
  TERMINAL TOTAL  .   391.0 +j    166.6      425.0       0.9200

ELEMENT = "Load.LOAD_TR2"
BT-TR2        1     130.3 +j   55.5      141.7       0.9200
BT-TR2        2     130.3 +j   55.5      141.7       0.9200
BT-TR2        3     130.3 +j   55.5      141.7       0.9200
BT-TR2        0       0.0 +j    0.0        0.0       1.0000
  TERMINAL TOTAL  .   391.0 +j    166.6      425.0       0.9200

ELEMENT = "Load.LOAD_TR3"
BT-TR3        1     195.5 +j   83.3      212.5       0.9200
BT-TR3        2     195.5 +j   83.3      212.5       0.9200
BT-TR3        3     195.5 +j   83.3      212.5       0.9200
BT-TR3        0       0.0 +j    0.0        0.0       1.0000
  TERMINAL TOTAL  .   586.5 +j    249.9      637.5       0.9200

ELEMENT = "Load.LOAD_TR4"
BT-TR4        1     130.3 +j   55.5      141.7       0.9200
BT-TR4        2     130.3 +j   55.5      141.7       0.9200
BT-TR4        3     130.3 +j   55.5      141.7       0.9200
BT-TR4        0       0.0 +j    0.0        0.0       1.0000
  TERMINAL TOTAL  .   391.0 +j    166.6      425.0       0.9200

ELEMENT = "Load.LOAD_TR5"
BT-TR5        1     195.5 +j   83.3      212.5       0.9200
BT-TR5        2     195.5 +j   83.3      212.5       0.9200
BT-TR5        3     195.5 +j   83.3      212.5       0.9200
BT-TR5        0       0.0 +j    0.0        0.0       1.0000
  TERMINAL TOTAL  .   586.5 +j    249.9      637.5       0.9200

ELEMENT = "Load.LOAD_TR6"
BT-TR6        1      78.2 +j   33.3       85.0       0.9200
BT-TR6        2      78.2 +j   33.3       85.0       0.9200
BT-TR6        3      78.2 +j   33.3       85.0       0.9200
BT-TR6        0       0.0 +j    0.0        0.0       1.0000
  TERMINAL TOTAL  .   234.6 +j     99.9      255.0       0.9200

ELEMENT = "Load.LOAD_TR7"
BT-TR7        1      58.7 +j   25.0       63.8       0.9200
BT-TR7        2      58.7 +j   25.0       63.8       0.9200
BT-TR7        3      58.7 +j   25.0       63.8       0.9200
BT-TR7        0       0.0 +j    0.0        0.0       1.0000
  TERMINAL TOTAL  .   176.0 +j     75.0      191.3       0.9200

ELEMENT = "PVSystem.SFV_1"
TR_ACOPL1     1    -916.5 +j   -0.0      916.5       1.0000
TR_ACOPL1     2    -916.5 +j   -0.0      916.5       1.0000
TR_ACOPL1     3    -916.5 +j   -0.0      916.5       1.0000
TR_ACOPL1     0       0.0 +j    0.0        0.0       1.0000
  TERMINAL TOTAL  . -2749.6 +j     -0.1     2749.6       1.0000


Total Circuit Losses =   21.4 +j  267.9
