Cenario_1/Tabelas_01/SE_Power_elem_kVA-Sem_RED.txt

CIRCUIT ELEMENT POWER FLOW

(Power Flow into element from indicated Bus)

Power Delivery Elements

  Bus  Phase     kW     +j   kvar         kVA         PF

ELEMENT = "Vsource.SOURCE"
99         1     -1032.4 +j   -496.8     1145.7       0.9011
99         2     -1032.4 +j   -496.8     1145.7       0.9011
99         3     -1032.4 +j   -496.8     1145.7       0.9011
   TERMINAL TOTAL -3097.2 +j  -1490.3     3437.1       0.9011
99         0         0.0 +j      0.0        0.0       1.0000
99         0         0.0 +j      0.0        0.0       1.0000
99         0         0.0 +j      0.0        0.0       1.0000
   TERMINAL TOTAL     0.0 +j      0.0        0.0       1.0000

ELEMENT = "Line.TRECHO_99-1"
99         1      1032.4 +j    496.8     1145.7       0.9011
99         2      1032.4 +j    496.8     1145.7       0.9011
99         3      1032.4 +j    496.8     1145.7       0.9011
   TERMINAL TOTAL  3097.2 +j   1490.3     3437.1       0.9011
1          1     -1032.1 +j   -496.3     1145.2       0.9012
1          2     -1032.1 +j   -496.3     1145.2       0.9012
1          3     -1032.1 +j   -496.3     1145.2       0.9012
   TERMINAL TOTAL -3096.2 +j  -1488.9     3435.6       0.9012

ELEMENT = "Line.TRECHO_1-2"
1          1       666.2 +j    320.4      739.2       0.9012
1          2       666.2 +j    320.4      739.2       0.9012
1          3       666.2 +j    320.4      739.2       0.9012
   TERMINAL TOTAL  1998.6 +j    961.3     2217.7       0.9012
2          1      -665.9 +j   -320.1      738.9       0.9013
2          2      -665.9 +j   -320.1      738.9       0.9013
2          3      -665.9 +j   -320.1      738.9       0.9013
   TERMINAL TOTAL -1997.8 +j   -960.3     2216.6       0.9013

ELEMENT = "Line.TRECHO_2-6"
2          1       234.2 +j    112.6      259.9       0.9013
2          2       234.2 +j    112.6      259.9       0.9013
2          3       234.2 +j    112.6      259.9       0.9013
   TERMINAL TOTAL   702.7 +j    337.7      779.7       0.9013
6          1      -234.1 +j   -112.6      259.8       0.9013
6          2      -234.1 +j   -112.6      259.8       0.9013
6          3      -234.1 +j   -112.6      259.8       0.9013
   TERMINAL TOTAL  -702.4 +j   -337.7      779.4       0.9013

ELEMENT = "Line.TRECHO_6-7"
6          1       146.4 +j     70.3      162.4       0.9013
6          2       146.4 +j     70.3      162.4       0.9013
6          3       146.4 +j     70.3      162.4       0.9013
   TERMINAL TOTAL   439.1 +j    211.0      487.1       0.9013
7          1      -146.3 +j    -70.3      162.4       0.9013
7          2      -146.3 +j    -70.3      162.4       0.9013
7          3      -146.3 +j    -70.3      162.4       0.9013
   TERMINAL TOTAL  -439.0 +j   -211.0      487.1       0.9013

ELEMENT = "Line.TRECHO_1-5"
1          1       219.6 +j    105.5      243.6       0.9013
1          2       219.6 +j    105.5      243.6       0.9013
1          3       219.6 +j    105.5      243.6       0.9013
   TERMINAL TOTAL   658.7 +j    316.6      730.8       0.9013
5          1      -219.5 +j   -105.5      243.5       0.9013
5          2      -219.5 +j   -105.5      243.5       0.9013
5          3      -219.5 +j   -105.5      243.5       0.9013
   TERMINAL TOTAL  -658.5 +j   -316.5      730.6       0.9013

ELEMENT = "Line.TRECHO_2-3"
2          1       365.9 +j    175.9      405.9       0.9013
2          2       365.9 +j    175.9      405.9       0.9013
2          3       365.9 +j    175.9      405.9       0.9013
   TERMINAL TOTAL  1097.6 +j    527.6     1217.8       0.9013
3          1      -365.8 +j   -175.8      405.9       0.9013
3          2      -365.8 +j   -175.8      405.9       0.9013
3          3      -365.8 +j   -175.8      405.9       0.9013
   TERMINAL TOTAL -1097.5 +j   -527.5     1217.7       0.9013

ELEMENT = "Line.TRECHO_3-4"
3          1       146.3 +j     70.3      162.4       0.9013
3          2       146.3 +j     70.3      162.4       0.9013
3          3       146.3 +j     70.3      162.4       0.9013
   TERMINAL TOTAL   439.0 +j    211.0      487.1       0.9013
4          1      -146.3 +j    -70.3      162.4       0.9013
4          2      -146.3 +j    -70.3      162.4       0.9013
4          3      -146.3 +j    -70.3      162.4       0.9013
   TERMINAL TOTAL  -439.0 +j   -211.0      487.1       0.9013

ELEMENT = "Transformer.TR1"
1          1       146.3 +j     70.3      162.4       0.9013
1          2       146.3 +j     70.3      162.4       0.9013
1          3       146.3 +j     70.3      162.4       0.9013
1          0         0.0 +j      0.0        0.0       1.0000
   TERMINAL TOTAL   439.0 +j    211.0      487.1       0.9013
BT-TR1     1      -145.7 +j    -62.1      158.3       0.9200
BT-TR1     2      -145.7 +j    -62.1      158.3       0.9200
BT-TR1     3      -145.7 +j    -62.1      158.3       0.9200
BT-TR1     0         0.0 +j      0.0        0.0       1.0000
   TERMINAL TOTAL  -437.0 +j   -186.2      475.0       0.9200

ELEMENT = "Transformer.TR2"
2          1        65.8 +j     31.7       73.1       0.9013
2          2        65.8 +j     31.7       73.1       0.9013
2          3        65.8 +j     31.7       73.1       0.9013
2          0         0.0 +j      0.0        0.0       1.0000
   TERMINAL TOTAL   197.5 +j     95.0      219.2       0.9013
BT-TR2     1       -65.5 +j    -27.9       71.2       0.9200
BT-TR2     2       -65.5 +j    -27.9       71.2       0.9200
BT-TR2     3       -65.5 +j    -27.9       71.2       0.9200
BT-TR2     0         0.0 +j      0.0        0.0       1.0000
   TERMINAL TOTAL  -196.6 +j    -83.8      213.7       0.9200

ELEMENT = "Transformer.TR3"
3          1       219.5 +j    105.5      243.5       0.9013
3          2       219.5 +j    105.5      243.5       0.9013
3          3       219.5 +j    105.5      243.5       0.9013
3          0         0.0 +j      0.0        0.0       1.0000
   TERMINAL TOTAL   658.5 +j    316.5      730.6       0.9013
BT-TR3     1      -218.5 +j    -93.1      237.5       0.9200
BT-TR3     2      -218.5 +j    -93.1      237.5       0.9200
BT-TR3     3      -218.5 +j    -93.1      237.5       0.9200
BT-TR3     0         0.0 +j      0.0        0.0       1.0000
   TERMINAL TOTAL  -655.5 +j   -279.2      712.5       0.9200

ELEMENT = "Transformer.TR4"
4          1       146.3 +j     70.3      162.4       0.9013
4          2       146.3 +j     70.3      162.4       0.9013
4          3       146.3 +j     70.3      162.4       0.9013
4          0         0.0 +j      0.0        0.0       1.0000
   TERMINAL TOTAL   439.0 +j    211.0      487.1       0.9013
BT-TR4     1      -145.7 +j    -62.1      158.3       0.9200
BT-TR4     2      -145.7 +j    -62.1      158.3       0.9200
BT-TR4     3      -145.7 +j    -62.1      158.3       0.9200
BT-TR4     0         0.0 +j      0.0        0.0       1.0000
   TERMINAL TOTAL  -437.0 +j   -186.2      475.0       0.9200

ELEMENT = "Transformer.TR5"
5          1       219.5 +j    105.5      243.5       0.9013
5          2       219.5 +j    105.5      243.5       0.9013
5          3       219.5 +j    105.5      243.5       0.9013
5          0         0.0 +j      0.0        0.0       1.0000
   TERMINAL TOTAL   658.5 +j    316.5      730.6       0.9013
BT-TR5     1      -218.5 +j    -93.1      237.5       0.9200
BT-TR5     2      -218.5 +j    -93.1      237.5       0.9200
BT-TR5     3      -218.5 +j    -93.1      237.5       0.9200
BT-TR5     0         0.0 +j      0.0        0.0       1.0000
   TERMINAL TOTAL  -655.5 +j   -279.2      712.5       0.9200

ELEMENT = "Transformer.TR6"
6          1        87.8 +j     42.2       97.4       0.9013
6          2        87.8 +j     42.2       97.4       0.9013
6          3        87.8 +j     42.2       97.4       0.9013
6          0         0.0 +j      0.0        0.0       1.0000
   TERMINAL TOTAL   263.4 +j    126.6      292.2       0.9013
BT-TR6     1       -87.4 +j    -37.2       95.0       0.9200
BT-TR6     2       -87.4 +j    -37.2       95.0       0.9200
BT-TR6     3       -87.4 +j    -37.2       95.0       0.9200
BT-TR6     0         0.0 +j      0.0        0.0       1.0000
   TERMINAL TOTAL  -262.2 +j   -111.7      285.0       0.9200

ELEMENT = "Transformer.TR7"
7          1       146.3 +j     70.3      162.4       0.9013
7          2       146.3 +j     70.3      162.4       0.9013
7          3       146.3 +j     70.3      162.4       0.9013
7          0         0.0 +j      0.0        0.0       1.0000
   TERMINAL TOTAL   439.0 +j    211.0      487.1       0.9013
BT-TR7     1      -145.7 +j    -62.1      158.3       0.9200
BT-TR7     2      -145.7 +j    -62.1      158.3       0.9200
BT-TR7     3      -145.7 +j    -62.1      158.3       0.9200
BT-TR7     0         0.0 +j      0.0        0.0       1.0000
   TERMINAL TOTAL  -437.0 +j   -186.2      475.0       0.9200

= = = = = = = = = = = = = = = = = = =  = = = = = = = = = = =  = =

Power Conversion Elements

  Bus  Phase     kW   +j  kvar         kVA         PF

ELEMENT = "Load.LOAD_TR1"
BT-TR1     1     145.7 +j   62.1      158.3       0.9200
BT-TR1     2     145.7 +j   62.1      158.3       0.9200
BT-TR1     3     145.7 +j   62.1      158.3       0.9200
BT-TR1     0       0.0 +j    0.0        0.0       1.0000
  TERMINAL TOTAL    437.0 +j    186.2      475.0       0.9200

ELEMENT = "Load.LOAD_TR2"
BT-TR2     1      65.5 +j   27.9       71.2       0.9200
BT-TR2     2      65.5 +j   27.9       71.2       0.9200
BT-TR2     3      65.5 +j   27.9       71.2       0.9200
BT-TR2     0       0.0 +j    0.0        0.0       1.0000
  TERMINAL TOTAL    196.6 +j     83.8      213.7       0.9200

ELEMENT = "Load.LOAD_TR3"
BT-TR3     1     218.5 +j   93.1      237.5       0.9200
BT-TR3     2     218.5 +j   93.1      237.5       0.9200
BT-TR3     3     218.5 +j   93.1      237.5       0.9200
BT-TR3     0       0.0 +j    0.0        0.0       1.0000
  TERMINAL TOTAL    655.5 +j    279.2      712.5       0.9200

ELEMENT = "Load.LOAD_TR4"
BT-TR4     1     145.7 +j   62.1      158.3       0.9200
BT-TR4     2     145.7 +j   62.1      158.3       0.9200
BT-TR4     3     145.7 +j   62.1      158.3       0.9200
BT-TR4     0       0.0 +j    0.0        0.0       1.0000
  TERMINAL TOTAL    437.0 +j    186.2      475.0       0.9200

ELEMENT = "Load.LOAD_TR5"
BT-TR5     1     218.5 +j   93.1      237.5       0.9200
BT-TR5     2     218.5 +j   93.1      237.5       0.9200
BT-TR5     3     218.5 +j   93.1      237.5       0.9200
BT-TR5     0       0.0 +j    0.0        0.0       1.0000
  TERMINAL TOTAL    655.5 +j    279.2      712.5       0.9200

ELEMENT = "Load.LOAD_TR6"
BT-TR6     1      87.4 +j   37.2       95.0       0.9200
BT-TR6     2      87.4 +j   37.2       95.0       0.9200
BT-TR6     3      87.4 +j   37.2       95.0       0.9200
BT-TR6     0       0.0 +j    0.0        0.0       1.0000
  TERMINAL TOTAL    262.2 +j    111.7      285.0       0.9200

ELEMENT = "Load.LOAD_TR7"
BT-TR7     1     145.7 +j   62.1      158.3       0.9200
BT-TR7     2     145.7 +j   62.1      158.3       0.9200
BT-TR7     3     145.7 +j   62.1      158.3       0.9200
BT-TR7     0       0.0 +j    0.0        0.0       1.0000
  TERMINAL TOTAL    437.0 +j    186.2      475.0       0.9200


Total Circuit Losses =   16.4 +j  177.8
