Cenario_1/Tabelas_01/SE_VLN_Node-Com_SFV.Txt

LINE-GROUND and LINE-LINE VOLTAGES BY BUS & NODE

Bus       Node    VLN (kV)   Angle      pu     Base kV    Node-Node   VLL (kV)  Angle      pu

99 ...... 1       7.8737 /_    0.2   0.98823    13.800        1-2     13.638 /_   30.2   0.98823
   -      2       7.8737 /_ -119.8   0.98823    13.800        2-3     13.638 /_  -89.8   0.98823
   -      3       7.8737 /_  120.2   0.98823    13.800        3-1     13.638 /_  150.2   0.98823
1 ....... 1       7.8723 /_    0.2   0.98807    13.800        1-2     13.635 /_   30.2   0.98807
   -      2       7.8723 /_ -119.8   0.98807    13.800        2-3     13.635 /_  -89.8   0.98807
   -      3       7.8723 /_  120.2   0.98807    13.800        3-1     13.635 /_  150.2   0.98807
2 ....... 1       7.8719 /_    0.3   0.98801    13.800        1-2     13.634 /_   30.3   0.98801
   -      2       7.8719 /_ -119.7   0.98801    13.800        2-3     13.634 /_  -89.7   0.98801
   -      3       7.8719 /_  120.3   0.98801    13.800        3-1     13.634 /_  150.3   0.98801
6 ....... 1       7.8703 /_    0.3   0.98781    13.800        1-2     13.632 /_   30.3   0.98781
   -      2       7.8703 /_ -119.7   0.98781    13.800        2-3     13.632 /_  -89.7   0.98781
   -      3       7.8703 /_  120.3   0.98781    13.800        3-1     13.632 /_  150.3   0.98781
7 ....... 1       7.8698 /_    0.3   0.98774    13.800        1-2     13.631 /_   30.3   0.98774
   -      2       7.8698 /_ -119.7   0.98774    13.800        2-3     13.631 /_  -89.7   0.98774
   -      3       7.8698 /_  120.3   0.98774    13.800        3-1     13.631 /_  150.3   0.98774
5 ....... 1       7.8701 /_    0.2   0.98779    13.800        1-2     13.631 /_   30.2   0.98779
   -      2       7.8701 /_ -119.8   0.98779    13.800        2-3     13.631 /_  -89.8   0.98779
   -      3       7.8701 /_  120.2   0.98779    13.800        3-1     13.631 /_  150.2   0.98779
3 ....... 1       7.8724 /_    0.3   0.98807    13.800        1-2     13.635 /_   30.3   0.98807
   -      2       7.8724 /_ -119.7   0.98807    13.800        2-3     13.635 /_  -89.7   0.98807
   -      3       7.8724 /_  120.3   0.98807    13.800        3-1     13.635 /_  150.3   0.98807
4 ....... 1        7.874 /_    0.3   0.98827    13.800        1-2     13.638 /_   30.3   0.98827
   -      2        7.874 /_ -119.7   0.98827    13.800        2-3     13.638 /_  -89.7   0.98827
   -      3        7.874 /_  120.3   0.98827    13.800        3-1     13.638 /_  150.3   0.98827
BT-TR1 .. 1      0.21212 /_  -32.0   0.96683     0.380        1-2     0.3674 /_   -2.0   0.96683
   -      2      0.21212 /_ -152.0   0.96683     0.380        2-3     0.3674 /_ -122.0   0.96683
   -      3      0.21212 /_   88.0   0.96683     0.380        3-1     0.3674 /_  118.0   0.96683
BT-TR2 .. 1       0.2121 /_  -32.0   0.96677     0.380        1-2    0.36737 /_   -2.0   0.96677
   -      2       0.2121 /_ -152.0   0.96677     0.380        2-3    0.36737 /_ -122.0   0.96677
   -      3       0.2121 /_   88.0   0.96677     0.380        3-1    0.36737 /_  118.0   0.96677
BT-TR3 .. 1      0.21212 /_  -32.0   0.96683     0.380        1-2     0.3674 /_   -2.0   0.96683
   -      2      0.21212 /_ -152.0   0.96683     0.380        2-3     0.3674 /_ -122.0   0.96683
   -      3      0.21212 /_   88.0   0.96683     0.380        3-1     0.3674 /_  118.0   0.96683
BT-TR4 .. 1      0.21216 /_  -32.0   0.96704     0.380        1-2    0.36747 /_   -2.0   0.96704
   -      2      0.21216 /_ -152.0   0.96704     0.380        2-3    0.36747 /_ -122.0   0.96704
   -      3      0.21216 /_   88.0   0.96704     0.380        3-1    0.36747 /_  118.0   0.96704
BT-TR5 .. 1      0.21205 /_  -32.0   0.96655     0.380        1-2    0.36729 /_   -2.0   0.96655
   -      2      0.21205 /_ -152.0   0.96655     0.380        2-3    0.36729 /_ -122.0   0.96655
   -      3      0.21205 /_   88.0   0.96655     0.380        3-1    0.36729 /_  118.0   0.96655
BT-TR6 .. 1      0.21206 /_  -32.0   0.96657     0.380        1-2     0.3673 /_   -2.0   0.96657
   -      2      0.21206 /_ -152.0   0.96657     0.380        2-3     0.3673 /_ -122.0   0.96657
   -      3      0.21206 /_   88.0   0.96657     0.380        3-1     0.3673 /_  118.0   0.96657
BT-TR7 .. 1      0.21204 /_  -32.0    0.9665     0.380        1-2    0.36727 /_   -2.0    0.9665
   -      2      0.21204 /_ -152.0    0.9665     0.380        2-3    0.36727 /_ -122.0    0.9665
   -      3      0.21204 /_   88.0    0.9665     0.380        3-1    0.36727 /_  118.0    0.9665
TR_ACOPL1 1      0.21729 /_    3.0   0.99042     0.380        1-2    0.37636 /_   33.0   0.99042
   -      2      0.21729 /_ -117.0   0.99042     0.380        2-3    0.37636 /_  -87.0   0.99042
   -      3      0.21729 /_  123.0   0.99042     0.380        3-1    0.37636 /_  153.0   0.99042
